{"id_": "1309544459072397314", "raw_data": {"created_at": "Fri Sep 25 17:25:03 +0000 2020", "id": 1309544459072397314, "id_str": "1309544459072397314", "full_text": "LILA-GRÜNES Perpetuum Mobile. Der Nachschub für die deutsche #Flüchtlingswirtschaft. Was @landesbischof Bedford-Strohm, @EKD Chefideologe Thies #Gundlach &amp; seine Ehefrau Katrin @GoeringEckardt damit zu tun haben? @seawatch @United4Rescue @GrueneBundestag\nhttps://t.co/VXLaJ4nfPH https://t.co/tv3mhjhRE5", "truncated": false, "display_text_range": [0, 282], "entities": {"hashtags": [{"text": "Flüchtlingswirtschaft", "indices": [61, 83]}, {"text": "Gundlach", "indices": [144, 153]}], "symbols": [], "user_mentions": [{"screen_name": "landesbischof", "name": "H. Bedford-Strohm", "id": 429401695, "id_str": "429401695", "indices": [89, 103]}, {"screen_name": "EKD", "name": "Evangelische Kirche", "id": 29430750, "id_str": "29430750", "indices": [120, 124]}, {"screen_name": "GoeringEckardt", "name": "Katrin Göring-Eckardt MdB", "id": 626287930, "id_str": "626287930", "indices": [181, 196]}, {"screen_name": "SEAWATCH", "name": "JENNIFER", "id": 153670941, "id_str": "153670941", "indices": [217, 226]}, {"screen_name": "United4Rescue", "name": "United4Rescue", "id": 1193949744382521345, "id_str": "1193949744382521345", "indices": [227, 241]}, {"screen_name": "GrueneBundestag", "name": "Grüne im Bundestag 🇪🇺🏳️‍🌈", "id": 24725119, "id_str": "24725119", "indices": [242, 258]}], "urls": [{"url": "https://t.co/VXLaJ4nfPH", "expanded_url": "https://m.facebook.com/HansjoergMuellerMdB/photos/a.945937345498304/3357221371036544/", "display_url": "m.facebook.com/HansjoergMuell…", "indices": [259, 282]}], "media": [{"id": 1309544451442905091, "id_str": "1309544451442905091", "indices": [283, 306], "media_url": "http://pbs.twimg.com/media/EixvvYXWkAM--Qa.jpg", "media_url_https": "https://pbs.twimg.com/media/EixvvYXWkAM--Qa.jpg", "url": "https://t.co/tv3mhjhRE5", "display_url": "pic.twitter.com/tv3mhjhRE5", "expanded_url": "https://twitter.com/MdB_Mueller_AfD/status/1309544459072397314/photo/1", "type": "photo", "original_info": {"width": 1279, "height": 1280, "focus_rects": [{"x": 0, "y": 0, "h": 716, "w": 1279}, {"x": 0, "y": 0, "h": 1279, "w": 1279}, {"x": 156, "y": 0, "h": 1280, "w": 1123}, {"x": 607, "y": 0, "h": 1280, "w": 640}, {"x": 0, "y": 0, "h": 1280, "w": 1279}]}, "sizes": {"thumb": {"w": 150, "h": 150, "resize": "crop"}, "small": {"w": 679, "h": 680, "resize": "fit"}, "medium": {"w": 1199, "h": 1200, "resize": "fit"}, "large": {"w": 1279, "h": 1280, "resize": "fit"}}}]}, "extended_entities": {"media": [{"id": 1309544451442905091, "id_str": "1309544451442905091", "indices": [283, 306], "media_url": "http://pbs.twimg.com/media/EixvvYXWkAM--Qa.jpg", "media_url_https": "https://pbs.twimg.com/media/EixvvYXWkAM--Qa.jpg", "url": "https://t.co/tv3mhjhRE5", "display_url": "pic.twitter.com/tv3mhjhRE5", "expanded_url": "https://twitter.com/MdB_Mueller_AfD/status/1309544459072397314/photo/1", "type": "photo", "original_info": {"width": 1279, "height": 1280, "focus_rects": [{"x": 0, "y": 0, "h": 716, "w": 1279}, {"x": 0, "y": 0, "h": 1279, "w": 1279}, {"x": 156, "y": 0, "h": 1280, "w": 1123}, {"x": 607, "y": 0, "h": 1280, "w": 640}, {"x": 0, "y": 0, "h": 1280, "w": 1279}]}, "sizes": {"thumb": {"w": 150, "h": 150, "resize": "crop"}, "small": {"w": 679, "h": 680, "resize": "fit"}, "medium": {"w": 1199, "h": 1200, "resize": "fit"}, "large": {"w": 1279, "h": 1280, "resize": "fit"}}, "media_key": "3_1309544451442905091", "ext_alt_text": null, "ext_media_color": {"palette": [{"rgb": {"red": 136, "green": 170, "blue": 197}, "percentage": 31.22}, {"rgb": {"red": 51, "green": 85, "blue": 114}, "percentage": 16.19}, {"rgb": {"red": 1, "green": 120, "blue": 172}, "percentage": 10.05}, {"rgb": {"red": 227, "green": 39, "blue": 38}, "percentage": 9.42}, {"rgb": {"red": 207, "green": 204, "blue": 205}, "percentage": 5.95}]}, "ext_media_availability": {"status": "available"}, "ext": {"mediaStats": {"r": "Missing", "ttl": -1}}}]}, "source": "<a href=\"http://twitter.com/download/android\" rel=\"nofollow\">Twitter for Android</a>", "in_reply_to_status_id": null, "in_reply_to_status_id_str": null, "in_reply_to_user_id": null, "in_reply_to_user_id_str": null, "in_reply_to_screen_name": null, "user_id": 965591555783430144, "user_id_str": "965591555783430144", "geo": null, "coordinates": null, "place": null, "contributors": null, "is_quote_status": false, "retweet_count": 4, "favorite_count": 0, "reply_count": 0, "quote_count": 0, "conversation_id": 1309544459072397314, "conversation_id_str": "1309544459072397314", "favorited": false, "retweeted": false, "possibly_sensitive": false, "possibly_sensitive_editable": true, "lang": "de", "supplemental_language": null}}